!!>>>>>>>>>>>>>>>>>>>>>>>>>>>>>>>>>>>>>>>>>>>>>>>>>>>>>>>>>>>>>>>>>>>>>>
!!>>>>>>>>>>>>>>>>>>>>>>>>>>>>>>>>>>>>>>>>>>>>>>>>>>>>>>>>>>>>>>>>>>>>>>
!! NEMO/LIM3 configuration namelist: Overwrites 1_namelist_ice_ref
!!              1 - Generic parameters                 (namicerun)
!!              2 - Diagnostics                        (namicediag)
!!              3 - Ice initialization                 (namiceini)
!!              4 - Ice discretization                 (namiceitd)
!!              5 - Ice dynamics and transport         (namicedyn)
!!              6 - Ice diffusion                      (namicehdf)
!!              7 - Ice thermodynamics                 (namicethd)
!!              8 - Ice salinity                       (namicesal)
!!              9 - Ice mechanical redistribution      (namiceitdme)
!>>>>>>>>>>>>>>>>>>>>>>>>>>>>>>>>>>>>>>>>>>>>>>>>>>>>>>>>>>>>>>>>>>>>>>>
!------------------------------------------------------------------------------
&namicerun     !   Generic parameters
!------------------------------------------------------------------------------
/
!------------------------------------------------------------------------------
&namicediag    !   Diagnostics
!------------------------------------------------------------------------------
/
!------------------------------------------------------------------------------
&namiceini     !   Ice initialization
!------------------------------------------------------------------------------
/
!------------------------------------------------------------------------------
&namiceitd     !   Ice discretization
!------------------------------------------------------------------------------
/
!------------------------------------------------------------------------------
&namicedyn     !   Ice dynamics and transport
!------------------------------------------------------------------------------
/
!------------------------------------------------------------------------------
&namicehdf     !   Ice horizontal diffusion
!------------------------------------------------------------------------------
/
!------------------------------------------------------------------------------
&namicethd     !   Ice thermodynamics
!------------------------------------------------------------------------------
/
!------------------------------------------------------------------------------
&namicesal     !   Ice salinity
!------------------------------------------------------------------------------
/
!------------------------------------------------------------------------------
&namiceitdme   !   Ice mechanical redistribution (ridging and rafting)
!------------------------------------------------------------------------------
/
