!!>>>>>>>>>>>>>>>>>>>>>>>>>>>>>>>>>>>>>>>>>>>>>>>>>>>>>>>>>>>>>>>>>>>>>>
!!                            namelist_ref
!!>>>>>>>>>>>>>>>>>>>>>>>>>>>>>>>>>>>>>>>>>>>>>>>>>>>>>>>>>>>>>>>>>>>>>>
!! NEMO/OPA  :  1 - run manager      (namrun)
!! namelists    2 - Domain           (namcfg, namzgr, namdom, namtsd, namcrs, namc1d, namc1d_uvd)
!!              3 - Surface boundary (namsbc, namsbc_flx, namsbc_blk, namsbc_sas)
!!                                    namsbc_cpl, namtra_qsr, namsbc_rnf,
!!                                    namsbc_apr, namsbc_ssr, namsbc_alb, namsbc_wave)
!!              4 - lateral boundary (namlbc, namagrif, nambdy, nambdy_tide)
!!              5 - bottom  boundary (nambfr, nambbc, nambbl)
!!              6 - Tracer           (nameos, namtra_adv, namtra_ldf, namtra_ldfeiv, namtra_dmp)
!!              7 - dynamics         (namdyn_adv, namdyn_vor, namdyn_hpg, namdyn_spg, namdyn_ldf)
!!              8 - Verical physics  (namzdf, namzdf_ric, namzdf_tke, namzdf_ddm, namzdf_tmx, namzdf_tmx_new)
!!              9 - diagnostics      (namnc4, namtrd, namspr, namflo, namhsb, namsto)
!!             10 - miscellaneous    (nammpp, namctl)
!!             11 - Obs & Assim      (namobs, nam_asminc)
!!>>>>>>>>>>>>>>>>>>>>>>>>>>>>>>>>>>>>>>>>>>>>>>>>>>>>>>>>>>>>>>>>>>>>>>

!!======================================================================
!!                   ***  Run management namelists  ***
!!======================================================================
!!   namrun       parameters of the run
!!======================================================================
!
!-----------------------------------------------------------------------
&namrun        !   parameters of the run
!-----------------------------------------------------------------------
   nn_no       =       0   !  job number (no more used...)
   cn_exp      =  "ORCA2"  !  experience name
   nn_it000    =       1   !  first time step
   nn_itend    =    5475   !  last  time step (std 5475)
   nn_date0    =  010101   !  date at nit_0000 (format yyyymmdd) used if ln_rstart=F or (ln_rstart=T and nn_rstctl=0 or 1)
   nn_time0    =       0   !  initial time of day in hhmm
   nn_leapy    =       0   !  Leap year calendar (1) or not (0)
   ln_rstart   = .false.   !  start from rest (F) or from a restart file (T)
      nn_euler    =    1            !  = 0 : start with forward time step if ln_rstart=T
      nn_rstctl   =    0            !  restart control ==> activated only if ln_rstart=T
      !                             !    = 0 nn_date0 read in namelist ; nn_it000 : read in namelist
      !                             !    = 1 nn_date0 read in namelist ; nn_it000 : check consistancy between namelist and restart
      !                             !    = 2 nn_date0 read in restart  ; nn_it000 : check consistancy between namelist and restart
      cn_ocerst_in    = "restart"   !  suffix of ocean restart name (input)
      cn_ocerst_indir = "."         !  directory from which to read input ocean restarts
      cn_ocerst_out   = "restart"   !  suffix of ocean restart name (output)
      cn_ocerst_outdir= "."         !  directory in which to write output ocean restarts
   ln_iscpl    = .false.   !  cavity evolution forcing or coupling to ice sheet model
   nn_istate   =       0   !  output the initial state (1) or not (0)
   ln_rst_list = .false.   !  output restarts at list of times using nn_stocklist (T) or at set frequency with nn_stock (F)
   nn_stock    =    5475   !  frequency of creation of a restart file (modulo referenced to 1)
   nn_stocklist = 0,0,0,0,0,0,0,0,0,0 ! List of timesteps when a restart file is to be written
   nn_write    =    5475   !  frequency of write in the output file   (modulo referenced to nn_it000)
   ln_mskland  = .false.   !  mask land points in NetCDF outputs (costly: + ~15%)
   ln_cfmeta   = .false.   !  output additional data to netCDF files required for compliance with the CF metadata standard
   ln_clobber  = .true.    !  clobber (overwrite) an existing file
   nn_chunksz  =       0   !  chunksize (bytes) for NetCDF file (works only with iom_nf90 routines)
/
!
!!======================================================================
!!                      ***  Domain namelists  ***
!!======================================================================
!!   namcfg       parameters of the configuration
!!   namdom       space and time domain (bathymetry, mesh, timestep)
!!   namwad       Wetting and drying                                    (default F)
!!   namtsd       data: temperature & salinity
!!   namcrs       coarsened grid (for outputs and/or TOP)               ("key_crs")
!!   namc1d       1D configuration options                              ("key_c1d")
!!   namc1d_dyndmp 1D newtonian damping applied on currents             ("key_c1d")
!!   namc1d_uvd   1D data (currents)                                    ("key_c1d")
!!======================================================================
!
!-----------------------------------------------------------------------
&namcfg        !   parameters of the configuration
!-----------------------------------------------------------------------
   ln_read_cfg = .false.   !  (=T) read the domain configuration file
      !                    !  (=F) user defined configuration  ==>>>  see usrdef(_...) modules
      cn_domcfg = "domain_cfg"         ! domain configuration filename
      !
   ln_write_cfg= .false.   !  (=T) create the domain configuration file
      cn_domcfg_out = "domain_cfg_out" ! newly created domain configuration filename
      !
   ln_use_jattr = .false.  !  use (T) the file attribute: open_ocean_jstart, if present
   !                       !  in netcdf input files, as the start j-row for reading
/
!-----------------------------------------------------------------------
&namdom        !   space and time domain (bathymetry, mesh, timestep)
!-----------------------------------------------------------------------
   ln_linssh   = .false.   !  =T  linear free surface  ==>>  model level are fixed in time
   nn_closea   =    0      !  remove (=0) or keep (=1) closed seas and lakes (ORCA)
   !
   nn_msh      =    0      !  create (>0) a mesh file or not (=0)
   rn_isfhmin  =    1.00   !  treshold (m) to discriminate grounding ice to floating ice
   !
   rn_rdt      = 5760.     !  time step for the dynamics (and tracer if nn_acc=0)
   rn_atfp     =    0.1    !  asselin time filter parameter
   !
   ln_crs      = .false.   !  Logical switch for coarsening module
/
!-----------------------------------------------------------------------
&namtsd        !   data : Temperature  & Salinity
!-----------------------------------------------------------------------
!              !  file name                 ! frequency (hours) ! variable ! time interp.!  clim  ! 'yearly'/ ! weights  ! rotation ! land/sea mask !
!              !                            !  (if <0  months)  !   name   !  (logical)  !  (T/F) ! 'monthly' ! filename ! pairing  ! filename      !
   sn_tem = 'data_1m_potential_temperature_nomask',     -1      ,'votemper',   .true.    , .true. , 'yearly'  ,    ''    ,    ''    ,    ''
   sn_sal = 'data_1m_salinity_nomask'             ,     -1      ,'vosaline',   .true.    , .true. , 'yearly'  ,    ''    ,    ''    ,    ''
   !
   cn_dir      = './'      !  root directory for the location of the runoff files
   ln_tsd_init = .true.    !  Initialisation of ocean T & S with T & S input data (T) or not (F)
   ln_tsd_tradmp = .true.  !  damping of ocean T & S toward T & S input data (T) or not (F)
/
!-----------------------------------------------------------------------
&namwad        !   Wetting and drying                                   (default F)
!-----------------------------------------------------------------------
   ln_wd       = .false.   !  T/F activation of wetting and drying
   rn_wdmin1   =  0.1      !  Minimum wet depth on dried cells
   rn_wdmin2   =  0.01     !  Tolerance of min wet depth on dried cells
   rn_wdld     =  20.0     !  Land elevation below which wetting/drying is allowed
   nn_wdit     =  10       !  Max iterations for W/D limiter
/
!-----------------------------------------------------------------------
&namcrs        !   coarsened grid (for outputs and/or TOP)              ("key_crs")
!-----------------------------------------------------------------------
   nn_factx    = 3         !  Reduction factor of x-direction
   nn_facty    = 3         !  Reduction factor of y-direction
   nn_binref   = 0         !  Bin centering preference: NORTH or EQUAT
                           !  0, coarse grid is binned with preferential treatment of the north fold
                           !  1, coarse grid is binned with centering at the equator
                           !    Symmetry with nn_facty being odd-numbered. Asymmetry with even-numbered nn_facty.
   nn_msh_crs  = 1         !  create (=1) a mesh file or not (=0)
   nn_crs_kz   = 0         ! 0, MEAN of volume boxes
                           ! 1, MAX of boxes
                           ! 2, MIN of boxes
   ln_crs_wn   = .true.    ! wn coarsened (T) or computed using horizontal divergence ( F )
/
!-----------------------------------------------------------------------
&namc1d        !   1D configuration options                             ("key_c1d")
!-----------------------------------------------------------------------
   rn_lat1d    =      50   !  Column latitude (default at PAPA station)
   rn_lon1d    =    -145   !  Column longitude (default at PAPA station)
   ln_c1d_locpt=  .true.   ! Localization of 1D config in a grid (T) or independant point (F)
/
!-----------------------------------------------------------------------
&namc1d_dyndmp !   U & V newtonian damping                              ("key_c1d")
!-----------------------------------------------------------------------
   ln_dyndmp   =  .false.  !  add a damping term (T) or not (F)
/
!-----------------------------------------------------------------------
&namc1d_uvd    !   data: U & V currents                                 ("key_c1d")
!-----------------------------------------------------------------------
!              !  file name  ! frequency (hours) ! variable  ! time interp. !  clim  ! 'yearly'/ ! weights  ! rotation ! land/sea mask !
!              !             !  (if <0  months)  !   name    !   (logical)  !  (T/F) ! 'monthly' ! filename ! pairing  ! filename      !
   sn_ucur     = 'ucurrent'  ,         -1        ,'u_current',   .false.    , .true. , 'monthly' ,  ''      ,  'Ume'   , ''
   sn_vcur     = 'vcurrent'  ,         -1        ,'v_current',   .false.    , .true. , 'monthly' ,  ''      ,  'Vme'   , ''
!
   cn_dir        = './'    !  root directory for the location of the files
   ln_uvd_init   = .false. !  Initialisation of ocean U & V with U & V input data (T) or not (F)
   ln_uvd_dyndmp = .false. !  damping of ocean U & V toward U & V input data (T) or not (F)
/

!!======================================================================
!!            ***  Surface Boundary Condition namelists  ***
!!======================================================================
!!   namsbc          surface boundary condition
!!   namsbc_flx      flux               formulation                     (ln_flx     =T)
!!   namsbc_blk      Bulk formulae formulation                          (ln_blk     =T)
!!   namsbc_cpl      CouPLed            formulation                     ("key_oasis3" )
!!   namsbc_sas      Stand-Alone Surface module
!!   namtra_qsr      penetrative solar radiation                        (ln_traqsr  =T)
!!   namsbc_rnf      river runoffs                                      (ln_rnf     =T)
!!   namsbc_isf      ice shelf melting/freezing                         (nn_isf     >0)
!!   namsbc_iscpl    coupling option between land ice model and ocean
!!   namsbc_apr      Atmospheric Pressure                               (ln_apr_dyn =T)
!!   namsbc_ssr      sea surface restoring term (for T and/or S)        (ln_ssr     =T)
!!   namsbc_alb      albedo parameters
!!   namsbc_wave     external fields from wave model                    (ln_wave    =T)
!!   namberg         iceberg floats                                     (ln_icebergs=T)
!!======================================================================
!
!-----------------------------------------------------------------------
&namsbc        !   Surface Boundary Condition (surface module)
!-----------------------------------------------------------------------
   nn_fsbc     = 5         !  frequency of surface boundary condition computation
                           !     (also = the frequency of sea-ice & iceberg model call)
                     ! Type of air-sea fluxes 
   ln_usr      = .false.   !  user defined formulation                  (T => check usrdef_sbc)
   ln_flx      = .false.   !  flux formulation                          (T => fill namsbc_flx )
   ln_blk      = .true.    !  Bulk formulation                          (T => fill namsbc_blk )
                     ! Type of coupling (Ocean/Ice/Atmosphere) :
   ln_cpl      = .false.   !  atmosphere coupled   formulation          ( requires key_oasis3 )
   ln_mixcpl   = .false.   !  forced-coupled mixed formulation          ( requires key_oasis3 )
   nn_components = 0       !  configuration of the opa-sas OASIS coupling
                           !  =0 no opa-sas OASIS coupling: default single executable configuration
                           !  =1 opa-sas OASIS coupling: multi executable configuration, OPA component
                           !  =2 opa-sas OASIS coupling: multi executable configuration, SAS component 
   nn_limflx = -1          !  LIM3 Multi-category heat flux formulation (use -1 if LIM3 is not used)
                           !  =-1  Use per-category fluxes, bypass redistributor, forced mode only, not yet implemented coupled
                           !  = 0  Average per-category fluxes (forced and coupled mode)
                           !  = 1  Average and redistribute per-category fluxes, forced mode only, not yet implemented coupled
                           !  = 2  Redistribute a single flux over categories (coupled mode only)
                     ! Sea-ice :
   nn_ice      = 3         !  =0 no ice boundary condition   ,
                           !  =1 use observed ice-cover      ,
                           !  =2 to 4 :  ice-model used (LIM2, LIM3 or CICE)                         ("key_lim3", "key_lim2", or "key_cice")
   nn_ice_embd = 1         !  =0 levitating ice (no mass exchange, concentration/dilution effect)
                           !  =1 levitating ice with mass and salt exchange but no presure effect
                           !  =2 embedded sea-ice (full salt and mass exchanges and pressure)
                     ! Misc. options of sbc : 
   ln_traqsr   = .true.    !  Light penetration in the ocean            (T => fill namtra_qsr)
   ln_dm2dc    = .false.   !  daily mean to diurnal cycle on short wave
   ln_rnf      = .true.    !  runoffs                                   (T => fill namsbc_rnf)
   ln_ssr      = .true.    !  Sea Surface Restoring on T and/or S       (T => fill namsbc_ssr)
   nn_fwb      = 2         !  FreshWater Budget: =0 unchecked
                           !     =1 global mean of e-p-r set to zero at each time step
                           !     =2 annual global mean of e-p-r set to zero
   ln_apr_dyn  = .false.   !  Patm gradient added in ocean & ice Eqs.   (T => fill namsbc_apr )
   ln_isf      = .false.   !  ice shelf                                 (T   => fill namsbc_isf)
   ln_wave     = .false.   !  Activate coupling with wave  (T => fill namsbc_wave)
   ln_cdgw     = .false.   !  Neutral drag coefficient read from wave model (T => ln_wave=.true. & fill namsbc_wave)
   ln_sdw      = .false.   !  Read 2D Surf Stokes Drift & Computation of 3D stokes drift (T => ln_wave=.true. & fill namsbc_wave) 
   ln_tauoc    = .false.   !  Activate ocean stress modified by external wave induced stress (T => ln_wave=.true. & fill namsbc_wave)
   ln_stcor    = .false.   !  Activate Stokes Coriolis term (T => ln_wave=.true. & ln_sdw=.true. & fill namsbc_wave)
   nn_lsm      = 0         !  =0 land/sea mask for input fields is not applied (keep empty land/sea mask filename field) ,
                           !  =1:n number of iterations of land/sea mask application for input fields (fill land/sea mask filename field)
/
!-----------------------------------------------------------------------
&namsbc_flx    !   surface boundary condition : flux formulation
!-----------------------------------------------------------------------
!              !  file name  ! frequency (hours) ! variable  ! time interp. !  clim  ! 'yearly'/ ! weights  ! rotation ! land/sea mask !
!              !             !  (if <0  months)  !   name    !   (logical)  !  (T/F) ! 'monthly' ! filename ! pairing  ! filename      !
   sn_utau     = 'utau'      ,        24         , 'utau'    , .false.      , .false., 'yearly'  , ''       , ''       , ''
   sn_vtau     = 'vtau'      ,        24         , 'vtau'    , .false.      , .false., 'yearly'  , ''       , ''       , ''
   sn_qtot     = 'qtot'      ,        24         , 'qtot'    , .false.      , .false., 'yearly'  , ''       , ''       , ''
   sn_qsr      = 'qsr'       ,        24         , 'qsr'     , .false.      , .false., 'yearly'  , ''       , ''       , ''
   sn_emp      = 'emp'       ,        24         , 'emp'     , .false.      , .false., 'yearly'  , ''       , ''       , ''

   cn_dir      = './'      !  root directory for the location of the flux files
/
!-----------------------------------------------------------------------
&namsbc_blk   !   namsbc_blk  generic Bulk formula                      (ln_blk = T)
!-----------------------------------------------------------------------
!              !  file name                   ! frequency (hours) ! variable  ! time interp. !  clim  ! 'yearly'/ ! weights                              ! rotation ! land/sea mask !
!              !                              !  (if <0  months)  !   name    !   (logical)  !  (T/F) ! 'monthly' ! filename                             ! pairing  ! filename      !
   sn_wndi     = 'u_10.15JUNE2009_fill'       ,         6         , 'U_10_MOD',   .false.    , .true. , 'yearly'  , 'weights_core_orca2_bicubic_noc.nc'   , 'Uwnd'   , ''
   sn_wndj     = 'v_10.15JUNE2009_fill'       ,         6         , 'V_10_MOD',   .false.    , .true. , 'yearly'  , 'weights_core_orca2_bicubic_noc.nc'   , 'Vwnd'   , ''
   sn_qsr      = 'ncar_rad.15JUNE2009_fill'   ,        24         , 'SWDN_MOD',   .false.    , .true. , 'yearly'  , 'weights_core_orca2_bilinear_noc.nc'  , ''       , ''
   sn_qlw      = 'ncar_rad.15JUNE2009_fill'   ,        24         , 'LWDN_MOD',   .false.    , .true. , 'yearly'  , 'weights_core_orca2_bilinear_noc.nc'  , ''       , ''
   sn_tair     = 't_10.15JUNE2009_fill'       ,         6         , 'T_10_MOD',   .false.    , .true. , 'yearly'  , 'weights_core_orca2_bilinear_noc.nc'  , ''       , ''
   sn_humi     = 'q_10.15JUNE2009_fill'       ,         6         , 'Q_10_MOD',   .false.    , .true. , 'yearly'  , 'weights_core_orca2_bilinear_noc.nc'  , ''       , ''
   sn_prec     = 'ncar_precip.15JUNE2009_fill',        -1         , 'PRC_MOD1',   .false.    , .true. , 'yearly'  , 'weights_core_orca2_bilinear_noc.nc'  , ''       , ''
   sn_snow     = 'ncar_precip.15JUNE2009_fill',        -1         , 'SNOW'    ,   .false.    , .true. , 'yearly'  , 'weights_core_orca2_bilinear_noc.nc'  , ''       , ''
   sn_slp      = 'slp.15JUNE2009_fill'        ,         6         , 'SLP'     ,   .false.    , .true. , 'yearly'  , 'weights_core_orca2_bilinear_noc.nc'  , ''       , ''
   sn_tdif     = 'taudif_core'                ,        24         , 'taudif'  ,   .false.    , .true. , 'yearly'  , 'weights_core_orca2_bilinear_noc.nc'  , ''       , ''
   !                    !  bulk algorithm :
   ln_NCAR     = .false.   ! "NCAR"      algorithm   (Large and Yeager 2008)
   ln_COARE_3p0= .false.   ! "COARE 3.0" algorithm   (Fairall et al. 2003)
   ln_COARE_3p5= .false.   ! "COARE 3.5" algorithm   (Edson et al. 2013)
   ln_ECMWF    = .false.   ! "ECMWF"     algorithm   (IFS cycle 31)
   !
   cn_dir      = './'      !  root directory for the location of the bulk files
   ln_taudif   = .false.   !  HF tau contribution: use "mean of stress module - module of the mean stress" data
   rn_zqt      = 10.       !  Air temperature and humidity reference height (m)
   rn_zu       = 10.       !  Wind vector reference height (m)
   rn_pfac     = 1.        !  multiplicative factor for precipitation (total & snow)
   rn_efac     = 1.        !  multiplicative factor for evaporation (0. or 1.)
   rn_vfac     = 0.        !  multiplicative factor for ocean/ice velocity
                           !  in the calculation of the wind stress (0.=absolute winds or 1.=relative winds)
   ln_Cd_L12   = .false.   !  Modify the drag ice-atm and oce-atm depending on ice concentration
                           !  This parameterization is from Lupkes et al. (JGR 2012)
/
!-----------------------------------------------------------------------
&namsbc_cpl    !   coupled ocean/atmosphere model                       ("key_oasis3")
!-----------------------------------------------------------------------
!                    !     description      !  multiple  !    vector   !      vector          ! vector !
!                    !                      ! categories !  reference  !    orientation       ! grids  !
! send
   sn_snd_temp   =   'weighted oce and ice' ,    'no'    ,     ''      ,         ''           ,   ''
   sn_snd_alb    =   'weighted ice'         ,    'no'    ,     ''      ,         ''           ,   ''
   sn_snd_thick  =   'none'                 ,    'no'    ,     ''      ,         ''           ,   ''
   sn_snd_crt    =   'none'                 ,    'no'    , 'spherical' , 'eastward-northward' ,  'T'
   sn_snd_co2    =   'coupled'              ,    'no'    ,     ''      ,         ''           ,   ''
   sn_snd_crtw   =       'none'                 ,    'no'    ,     ''      ,         ''           , 'U,V'
   sn_snd_ifrac  =       'none'                 ,    'no'    ,     ''      ,         ''           ,   ''
   sn_snd_wlev   =       'coupled'              ,    'no'    ,     ''      ,         ''           ,   ''
! receive
   sn_rcv_w10m   =   'none'                 ,    'no'    ,     ''      ,         ''          ,   ''
   sn_rcv_taumod =   'coupled'              ,    'no'    ,     ''      ,         ''          ,   ''
   sn_rcv_tau    =   'oce only'             ,    'no'    , 'cartesian' , 'eastward-northward',  'U,V'
   sn_rcv_dqnsdt =   'coupled'              ,    'no'    ,     ''      ,         ''          ,   ''
   sn_rcv_qsr    =   'oce and ice'          ,    'no'    ,     ''      ,         ''          ,   ''
   sn_rcv_qns    =   'oce and ice'          ,    'no'    ,     ''      ,         ''          ,   ''
   sn_rcv_emp    =   'conservative'         ,    'no'    ,     ''      ,         ''          ,   ''
   sn_rcv_rnf    =   'coupled'              ,    'no'    ,     ''      ,         ''          ,   ''
   sn_rcv_cal    =   'coupled'              ,    'no'    ,     ''      ,         ''          ,   ''
   sn_rcv_co2    =   'coupled'              ,    'no'    ,     ''      ,         ''          ,   ''
   sn_rcv_hsig   =       'none'                 ,    'no'    ,     ''      ,         ''          ,   ''
   sn_rcv_iceflx =       'none'                 ,    'no'    ,     ''      ,         ''          ,   ''
   sn_rcv_mslp   =       'none'                 ,    'no'    ,     ''      ,         ''          ,   ''
   sn_rcv_phioc  =       'none'                 ,    'no'    ,     ''      ,         ''          ,   ''
   sn_rcv_sdrfx  =       'none'                 ,    'no'    ,     ''      ,         ''          ,   ''
   sn_rcv_sdrfy  =       'none'                 ,    'no'    ,     ''      ,         ''          ,   ''
   sn_rcv_wper   =       'none'                 ,    'no'    ,     ''      ,         ''          ,   ''
   sn_rcv_wnum   =       'none'                 ,    'no'    ,     ''      ,         ''          ,   ''
   sn_rcv_wstrf  =       'none'                 ,    'no'    ,     ''      ,         ''          ,   ''
   sn_rcv_wdrag  =       'none'                 ,    'no'    ,     ''      ,         ''          ,   ''
!
   nn_cplmodel   =     1   !  Maximum number of models to/from which NEMO is potentialy sending/receiving data
   ln_usecplmask = .false. !  use a coupling mask file to merge data received from several models
   !                       !   -> file cplmask.nc with the float variable called cplmask (jpi,jpj,nn_cplmodel)
/
!-----------------------------------------------------------------------
&namsbc_sas    !   Stand Alone Surface boundary condition
!-----------------------------------------------------------------------
!              !  file name  ! frequency (hours) ! variable  ! time interp.!  clim  ! 'yearly'/ ! weights  ! rotation ! land/sea mask !
!              !             !  (if <0  months)  !   name    !  (logical)  !  (T/F) ! 'monthly' ! filename ! pairing  ! filename      !
   l_sasread   = .TRUE.   ! Read fields in a file if .TRUE. , or initialize to 0. in sbcssm.F90 if .FALSE.
   sn_usp      = 'sas_grid_U',     120           , 'vozocrtx',   .true.    , .true. , 'yearly'  ,    ''    ,    ''    ,    ''
   sn_vsp      = 'sas_grid_V',     120           , 'vomecrty',   .true.    , .true. , 'yearly'  ,    ''    ,    ''    ,    ''
   sn_tem      = 'sas_grid_T',     120           , 'sosstsst',   .true.    , .true. , 'yearly'  ,    ''    ,    ''    ,    ''
   sn_sal      = 'sas_grid_T',     120           , 'sosaline',   .true.    , .true. , 'yearly'  ,    ''    ,    ''    ,    ''
   sn_ssh      = 'sas_grid_T',     120           , 'sossheig',   .true.    , .true. , 'yearly'  ,    ''    ,    ''    ,    ''
   sn_e3t      = 'sas_grid_T',     120           , 'e3t_m'   ,   .true.    , .true. , 'yearly'  ,    ''    ,    ''    ,    ''
   sn_frq      = 'sas_grid_T',     120           , 'frq_m'   ,   .true.    , .true. , 'yearly'  ,    ''    ,    ''    ,    ''

   ln_3d_uve   = .true.    !  specify whether we are supplying a 3D u,v and e3 field
   ln_read_frq = .false.   !  specify whether we must read frq or not
   cn_dir      = './'      !  root directory for the location of the bulk files are
/
!-----------------------------------------------------------------------
&namtra_qsr    !   penetrative solar radiation                          (ln_traqsr=T)
!-----------------------------------------------------------------------
!              !  file name  ! frequency (hours) ! variable  ! time interp. !  clim  ! 'yearly'/ ! weights  ! rotation ! land/sea mask !
!              !             !  (if <0  months)  !   name    !   (logical)  !  (T/F) ! 'monthly' ! filename ! pairing  ! filename      !
   sn_chl      ='chlorophyll',        -1         , 'CHLA'    ,   .true.     , .true. , 'yearly'  , ''       , ''       , ''

   cn_dir      = './'      !  root directory for the location of the runoff files
   ln_qsr_rgb  = .true.    !  RGB (Red-Green-Blue) light penetration
   ln_qsr_2bd  = .false.   !  2 bands              light penetration
   ln_qsr_bio  = .false.   !  bio-model light penetration
   nn_chldta   =      1    !  RGB : Chl data (=1) or cst value (=0)
   rn_abs      =   0.58    !  RGB & 2 bands: fraction of light (rn_si1)
   rn_si0      =   0.35    !  RGB & 2 bands: shortess depth of extinction
   rn_si1      =   23.0    !  2 bands: longest depth of extinction
   ln_qsr_ice  = .true.    !  light penetration for ice-model LIM3
/
!-----------------------------------------------------------------------
&namsbc_rnf    !   runoffs namelist surface boundary condition          (ln_rnf=T)
!-----------------------------------------------------------------------
!              !  file name           ! frequency (hours) ! variable  ! time interp. !  clim  ! 'yearly'/ ! weights  ! rotation ! land/sea mask !
!              !                      !  (if <0  months)  !   name    !   (logical)  !  (T/F) ! 'monthly' ! filename ! pairing  ! filename      !
   sn_rnf      = 'runoff_core_monthly',        -1         , 'sorunoff',   .true.     , .true. , 'yearly'  , ''       , ''       , ''
   sn_cnf      = 'runoff_core_monthly',         0         , 'socoefr0',   .false.    , .true. , 'yearly'  , ''       , ''       , ''
   sn_s_rnf    = 'runoffs'            ,        24         , 'rosaline',   .true.     , .true. , 'yearly'  , ''       , ''       , ''
   sn_t_rnf    = 'runoffs'            ,        24         , 'rotemper',   .true.     , .true. , 'yearly'  , ''       , ''       , ''
   sn_dep_rnf  = 'runoffs'            ,         0         , 'rodepth' ,   .false.    , .true. , 'yearly'  , ''       , ''       , ''

   cn_dir      = './'      !  root directory for the location of the runoff files
   ln_rnf_mouth= .true.    !  specific treatment at rivers mouths
      rn_hrnf     =  15.e0    !  depth over which enhanced vertical mixing is used    (ln_rnf_mouth=T)
      rn_avt_rnf  =   1.e-3   !  value of the additional vertical mixing coef. [m2/s] (ln_rnf_mouth=T)
   rn_rfact    =   1.e0    !  multiplicative factor for runoff
   ln_rnf_depth= .false.   !  read in depth information for runoff
   ln_rnf_tem  = .false.   !  read in temperature information for runoff
   ln_rnf_sal  = .false.   !  read in salinity information for runoff
   ln_rnf_depth_ini = .false. ! compute depth at initialisation from runoff file
      rn_rnf_max  = 5.735e-4  !  max value of the runoff climatologie over global domain ( ln_rnf_depth_ini = .true )
      rn_dep_max  = 150.      !  depth over which runoffs is spread ( ln_rnf_depth_ini = .true )